15
Properties=species:S:1:pos:R:3:forces:R:3:molID:I:1:MACE_forces:R:3 charge=0 multiplicity=1 energy=-10425.81343963755 dipoleMoment="-0.47582849666293325 0.2805349657540091 -1.298518227657735" atomizationEnergy=-0.5461770484165404 config_type=EMC Nmols=1 MACE_energy=-10425.813443379162 pbc="F F F"
C        0.55322343       0.13842350      -0.15291147      -0.26630658      -0.58448845       3.31003366        0      -0.26427270      -0.57716276       3.30909559
O        1.42949045      -0.03410950       0.65567052       1.08453573       0.11050515      -0.71365415        0       1.08279805       0.11603899      -0.72600050
O       -0.70229256      -0.18521149       0.10958254      -0.81363807       0.74494574      -1.17555806        0      -0.82024891       0.73975791      -1.18009980
O        0.52709442       0.72762352      -1.27247548      -3.58526115       0.26994590      -1.67480685        0      -3.57346960       0.25788503      -1.66584527
C       -0.96902657      -0.69810450       1.34668958      -1.35897862      -4.59237804       1.53598750        0      -1.35644146      -4.59419416       1.53903624
C        1.57160044       1.16148651      -1.95995545       5.41656775      -1.97407533      -1.44248181        0       5.41158601      -1.97011272      -1.45091292
C       -2.49717665      -1.10268545       1.34512448      -1.02956413      -0.24168576      -0.54161276        0      -1.02476655      -0.22709583      -0.54523587
H       -0.43880254      -1.69951952       1.43858349      -0.15499997       1.11801652       0.06716208        0      -0.15764349       1.11892160       0.07010982
H       -0.64757156      -0.14690450       2.22884560      -0.14845357       0.74440321      -0.34567540        0      -0.14872067       0.73909743      -0.34476304
H        2.14136338       1.86626852      -1.34006846      -0.27450343       0.89718352      -1.01816433        0      -0.27214393       0.90237843      -1.01822497
H        2.34003448       0.29736251      -2.00338149      -0.76252817       0.94565445       0.01603729        0      -0.76789754       0.93881814       0.01907888
H       -2.90330148      -1.17153251       2.44921756       0.50776349       0.50343026      -2.36306342        0       0.50412984       0.50730886      -2.36403313
H       -3.01518655      -0.35831249       0.60614651       0.43255964      -0.97938755       2.00419893        0       0.43297379      -0.99190765       2.01194294
H       -2.75708961      -2.14071441       0.82822353       1.09623113       1.95854864       1.16761681        0       1.09636682       1.95739749       1.16116169
H        1.34559643       1.25011551      -3.05100346      -0.14332594       1.08131874       1.17747305        0      -0.14224967       1.08286924       1.18469032
23
Properties=species:S:1:pos:R:3:forces:R:3:molID:I:1:MACE_forces:R:3 charge=0 multiplicity=1 energy=-19715.979457009707 dipoleMoment="3.5222024425294074 1.30493162720401 -2.1526306532935426" atomizationEnergy=-1.0994573505396776 config_type=VC:EMC Nmols=2 MACE_energy=-19715.969494543628 pbc="F F F"
C       -0.72762960      -0.88461655      -3.33485961      -3.31686156       0.08771294      -2.20614522        0      -3.33199434       0.08886807      -2.19514308
O       -1.79419661      -1.03026855      -2.37344670       1.28249299       0.78331309      -0.09540338        0       1.30231299       0.78207558      -0.09324809
C       -2.99269271      -1.11811054      -3.02793550       3.44790073       0.66301876      -0.70378950        0       3.41452056       0.65517602      -0.70239686
O       -2.76625061      -1.02757156      -4.32514763       2.15485529      -1.11098355      -2.49022599        0       2.18171569      -1.11791885      -2.49197503
C       -1.36539066      -1.03745353      -4.55730867      -0.20237102       0.56835622       1.64310592        0      -0.20567133       0.56878834       1.64689963
O       -4.04988670      -1.21654856      -2.59292650      -3.65280662      -0.48235968       2.47742819        0      -3.63283385      -0.47354341       2.47172937
H       -1.09450066      -1.20259857      -5.61465073       0.08318974       0.57576650       0.91794913        0       0.07381318       0.57761316       0.91509427
H        0.10257138      -0.20556356      -3.13660669       0.21233574      -1.08249930       0.46282796        0       0.20663430      -1.08288759       0.46329927
C        2.02371836       0.35288844       2.53989840      -1.93078209       1.02518706       1.22412214        1      -1.88342923       1.03993799       1.19753654
O        2.93887544       0.10966944       1.82600236       0.96415646      -0.31506722      -0.69850293        1       0.94943382      -0.32483410      -0.67673922
O        1.85624635       1.46783948       3.28992748      -0.28768157       0.00379905      -0.52172147        1      -0.29919649       0.00134893      -0.51213346
O        0.90513837      -0.41702655       2.73619938       1.58574897      -0.64124594      -0.43866122        1       1.55735577      -0.65739134      -0.43599946
C        2.66180539       2.68257356       3.06741548       0.20105974      -2.20544333      -0.76464691        1       0.20729189      -2.18955196      -0.77243784
C        1.03940344      -1.74678457       2.09476328      -2.00692215       1.88932610      -0.99017365        1      -2.00670829       1.89612472      -0.99801258
C        2.06451750       3.72800255       3.88714933      -1.74047494       1.75148477       2.54413330        1      -1.73579736       1.75080032       2.54161776
H        3.65855145       2.42063546       3.39917827       0.41855163       0.16657490       0.06288357        1       0.41694947       0.15955009       0.06401413
H        2.72075343       2.93739152       2.00834846      -0.23208290      -0.20483363      -0.12810355        1      -0.23457394      -0.21011269      -0.12820098
H        1.77583134      -2.34212661       2.58600736       0.69694036      -0.32763883       0.07202143        1       0.69656212      -0.32904115       0.06905890
H        0.03262238      -2.17984653       2.17879343       0.35452840      -0.01195157       0.35402307        1       0.35606341      -0.01386860       0.35685930
H        2.59844232       4.68231964       3.80221939       0.38696771      -0.29272201       0.12375067        1       0.38550451      -0.28897907       0.12551483
H        1.01191044       4.04602337       3.66509342       0.71016751      -0.81905890      -0.30149280        1       0.70612404      -0.81886716      -0.30102748
H        2.02607131       3.41605139       4.98573828       0.28172224       0.44752307      -1.35927371        1       0.28098810       0.44854743      -1.35490591
H        1.15985835      -1.55689359       1.00294042       0.59289534      -0.46184036       0.81441497        1       0.59493496      -0.46183473       0.81059598
10
Properties=species:S:1:pos:R:3:forces:R:3:molID:I:1:MACE_forces:R:3 charge=0 multiplicity=1 energy=-9323.407012065067 dipoleMoment="4.214307640294459 -0.6783925356032396 -3.5174428162786286" atomizationEnergy=-0.588359473208711 config_type=EC Nmols=1 MACE_energy=-9323.408152031949 pbc="F F F"
C        0.78793490      -0.86434120      -1.02151775      -0.44170015      -0.45528306      -1.39820052        0      -0.44447598      -0.45838808      -1.40044932
O       -0.52143610      -0.90832621      -0.41647279       0.44947901       0.45485594       0.26767434        0       0.44977400       0.45538319       0.26587508
C       -0.57067508       0.08395482       0.51586920      -1.36006247       0.45554703       0.51859506        0      -1.36302634       0.45347908       0.51600117
O        0.50806093       0.90441179       0.33497021      -0.96968448       0.55212461       2.15567943        0      -0.96226768       0.55238300       2.15744962
C        1.29724491       0.52708483      -0.74926180      -0.58944282       0.12804937      -0.63658367        0      -0.58629090       0.13173777      -0.63761067
H        1.38085496      -1.64000714      -0.55216181       0.24866513      -0.24851702      -0.13421589        0       0.24881708      -0.24822638      -0.13198230
H        0.68979794      -0.97796720      -2.12449288      -0.01314640      -0.53368702       0.82177547        0      -0.01395089      -0.53660536       0.82144380
O       -1.46665108       0.24634781       1.32195115       2.09036167      -0.31025071      -1.61049012        0       2.08988880      -0.31017813      -1.60853333
H        2.35176086       0.57273281      -0.50241476       0.15121167       0.08640537       0.06808974        0       0.15161849       0.08779417       0.06968572
H        1.03372896       1.21366477      -1.56574774       0.43176145      -0.12870888      -0.05212585        0       0.42991343      -0.12737927      -0.05187978
10
Properties=species:S:1:pos:R:3:forces:R:3:molID:I:1:MACE_forces:R:3 charge=0 multiplicity=1 energy=-9323.177370253996 dipoleMoment="-3.0150976902526727 4.472334923988483 0.3442602954124672" atomizationEnergy=-0.3587176621381665 config_type=EC Nmols=1 MACE_energy=-9323.178484401304 pbc="F F F"
C       -0.45881644       1.38160992      -0.52738088      -0.58197229       1.52447711       1.06129395        0      -0.58147240       1.52543431       1.06023375
O        0.33783057       0.34343797      -0.95917988       1.17288300       0.27524883      -1.87244915        0       1.16951074       0.27520707      -1.87091575
C        0.47710457      -0.57713604      -0.02363390       0.13835973      -2.77603249      -0.25124036        0       0.13807924      -2.77651694      -0.25469960
O       -0.36630544      -0.32536003       1.00094712       1.50367450      -0.91261077       0.96860175        0       1.50244165      -0.90690542       0.97462976
C       -1.11419845       0.78551197       0.68787211      -2.02968809       0.91764847      -0.64154965        0      -2.02735758       0.91479610      -0.63979964
H        0.12104857       2.22847104      -0.14766590       0.36786225       0.17688354      -0.84353531        0       0.36593608       0.17478633      -0.84289605
H       -1.23070443       1.68072796      -1.24614096       0.59860943       0.00404968      -0.20865021        0       0.59770860       0.00496825      -0.21020087
O        1.12482953      -1.58116400      -0.16985390      -0.31190234       1.18381670       0.64408993        0      -0.31037567       1.18130853       0.64429440
H       -1.16492546       1.54206192       1.47193611      -0.27358608      -0.50662135       0.35120936        0      -0.27464802      -0.50777832       0.35177525
H       -2.07654738       0.42436096       0.32516310      -0.58134470       0.11233402       0.79022016        0      -0.57982263       0.11470008       0.78757876
